7
Lattice="0.0 0.0 0.0 0.0 0.0 0.0 0.0 0.0 0.0" Properties=species:S:1:pos:R:3:Z:I:1:magmoms:R:1:tags:I:1:forces:R:3 energy=nan pbc="F F F"
H      0.00000000       0.00000000      -2.00000000        1       0.00000000        0              nan              nan              nan 
H      0.00000000       0.00000000       2.00000000        1       0.00000000        0              nan              nan              nan 
He      0.00000000       0.00000000       0.00000000        2       0.00000000        0              nan              nan              nan 
X     -0.00762219      -0.02342781      -0.09897433        0       0.00000000        0              nan              nan              nan 
X     -0.15136579      -0.02896026       2.00677842        0       0.00000000        0              nan              nan              nan 
X     -0.00956567      -0.03004213      -1.96493520        0       0.00000000        0              nan              nan              nan 
He     -0.04750909      -0.03318722       0.03243338        2       0.00000000        0              nan              nan              nan 
