6
Lattice="0.0 0.0 0.0 0.0 0.0 0.0 0.0 0.0 0.0" Properties=species:S:1:pos:R:3:Z:I:1 FO=T positions=T pbc="F F F"
Li       0.00000000       0.00000000       0.41000000        3 
H       0.00000000       0.00000000      -1.23000000        1 
X       0.00000000       0.00000000       0.27552010        0 
X       0.06891506       0.03258887      -0.04224497        0 
He       0.00000000       0.00000000       0.30633268        2 
He       0.06891506       0.03258887      -0.24455556        2 
